<configuration>

   <input>
       <net-file value="out/small.net.xml"/>
       <route-files value="out/routeSampler/small.sampledRoutes.xml"/>
   </input>

   <output>
      <edgedata-output value="out/routeSampler/small.edgedata.xml" />
   </output>

   <processing>
      <extrapolate-departpos value="True" />
      <threads value="4" />
   </processing>

   <time>
   </time>

   <mesoscopic>
      <mesosim value="True" />
   </mesoscopic>

</configuration>

