<configuration>

   <input>
       <net-file value="out/small.net.xml"/>
      <additional-files value="out/small.routes.xml, out/small.flows.xml"/>
      <netstate-dump value="out/small.dump.xml" />
   </input>

   <processing>
      <extrapolate-departpos value="True" />
      <threads value="4" />
   </processing>

   <time>
   </time>

</configuration>

